Version 4
SHEET 1 880 1064
WIRE -80 -128 -272 -128
WIRE 64 -128 -80 -128
WIRE 448 -128 64 -128
WIRE -80 48 -80 -128
WIRE 144 112 96 112
WIRE 448 112 448 -128
WIRE 448 112 368 112
WIRE -272 160 -272 -128
WIRE -80 176 -80 128
WIRE -32 176 -80 176
WIRE 0 176 -32 176
WIRE 144 176 80 176
WIRE 416 176 368 176
WIRE 448 176 416 176
WIRE -80 208 -80 176
WIRE 80 208 80 176
WIRE 80 208 0 208
WIRE 144 240 48 240
WIRE 416 240 368 240
WIRE 448 240 416 240
WIRE 112 304 80 304
WIRE 144 304 112 304
WIRE -80 352 -80 288
WIRE -32 352 -80 352
WIRE 0 352 0 208
WIRE 0 352 -32 352
WIRE 48 384 48 240
WIRE -80 416 -80 352
WIRE 48 544 48 464
WIRE -272 640 -272 240
WIRE -80 640 -80 480
WIRE -80 640 -272 640
WIRE 48 640 48 608
WIRE 48 640 -80 640
WIRE -272 672 -272 640
FLAG 96 112 0
FLAG -32 176 DIS
FLAG 64 -128 VCC
FLAG -32 352 TRIG
FLAG 112 304 VCC
FLAG 416 240 TRIG
FLAG -272 672 0
FLAG 416 176 DIS
SYMBOL Misc\\NE555 256 208 R0
SYMATTR InstName U1
SYMBOL res -96 32 R0
SYMATTR InstName R1
SYMATTR Value 1k
SYMBOL res -96 192 R0
SYMATTR InstName R2
SYMATTR Value 470k
SYMBOL cap -96 416 R0
WINDOW 0 33 4 Left 2
SYMATTR InstName C1
SYMATTR Value 1µ
SYMBOL res 32 368 R0
WINDOW 0 46 42 Left 2
SYMATTR InstName R3
SYMATTR Value 1k
SYMBOL voltage -272 144 R0
WINDOW 123 0 0 Left 0
WINDOW 39 0 0 Left 0
SYMATTR InstName V1
SYMATTR Value 9
SYMBOL LED 32 544 R0
SYMATTR InstName D1
SYMATTR Value QTLP690C
TEXT -274 760 Left 2 !.tran 0 10 0
